@<TRIPOS>MOLECULE
*****
 18 18 0 0 0
SMALL
GASTEIGER

@<TRIPOS>ATOM
      1 C           1.0187    0.9337    0.0222 C.ar    1  UNL1        0.0589
      2 C          -0.2070    1.2643   -0.5698 C.ar    1  UNL1       -0.0470
      3 C           1.2142   -0.3354    0.5952 C.ar    1  UNL1       -0.0470
      4 C           2.1172    1.9310    0.0275 C.2     1  UNL1        0.3368
      5 H           3.9728    2.3495    0.6262 H       1  UNL1        0.2954
      6 H          -0.3574    2.2423   -1.0027 H       1  UNL1        0.0626
      7 H           2.1599   -0.5783    1.0563 H       1  UNL1        0.0626
      8 O           3.1785    1.6178    0.6548 O.3     1  UNL1       -0.4771
      9 O           1.9668    3.0235   -0.5857 O.2     1  UNL1       -0.2451
     10 C          -1.2142    0.3354   -0.5952 C.ar    1  UNL1       -0.0470
     11 C           0.2070   -1.2643    0.5698 C.ar    1  UNL1       -0.0470
     12 C          -1.0187   -0.9337   -0.0222 C.ar    1  UNL1        0.0589
     13 H          -2.1599    0.5783   -1.0563 H       1  UNL1        0.0626
     14 H           0.3574   -2.2423    1.0027 H       1  UNL1        0.0626
     15 C          -2.1172   -1.9310   -0.0275 C.2     1  UNL1        0.3368
     16 O          -3.1785   -1.6178   -0.6548 O.3     1  UNL1       -0.4771
     17 O          -1.9668   -3.0235    0.5857 O.2     1  UNL1       -0.2451
     18 H          -3.9728   -2.3495   -0.6262 H       1  UNL1        0.2954
@<TRIPOS>BOND
     1    13    10    1
     2     6     2    1
     3    16    18    1
     4    16    15    1
     5    10     2   ar
     6    10    12   ar
     7     9     4    2
     8     2     1   ar
     9    15    12    1
    10    15    17    2
    11    12    11   ar
    12     1     4    1
    13     1     3   ar
    14     4     8    1
    15    11     3   ar
    16    11    14    1
    17     3     7    1
    18     5     8    1
